<?xml version="1.0" encoding="UTF-8"?>

<!-- generated on 2023-06-30 14:56:12 by Eclipse SUMO netedit Version 1.16.0
-->

<routes xmlns:xsi="http://www.w3.org/2001/XMLSchema-instance" xsi:noNamespaceSchemaLocation="http://sumo.dlr.de/xsd/routes_file.xsd">

<vType id = "vtypeauto1" length="6.534" width="2.438" height="2.43" sigma="0.6" minGap="0" color="1,0,0" probability="1" carFollowModel="CC" tauEngine="0.5" tau="0.5" omegaN="0.2" xi="1" c1="0.5" lanesCount="4" ccAccel="1.5" ploegKp="0.2" ploegKd="0.7" ploegH="0.5" speedFactor="2" emissionClass="PHEMlight/Model1/2truck/5/90/Lower/RT_II_D_EU0"/>

<vType id = "vtypeauto2" length="6.534" width="2.438" height="2.43" sigma="0.6" minGap="0" color="1,0,0" probability="1" carFollowModel="CC" tauEngine="0.5" tau="0.5" omegaN="0.2" xi="1" c1="0.5" lanesCount="4" ccAccel="1.5" ploegKp="0.2" ploegKd="0.7" ploegH="0.5" speedFactor="2" emissionClass="PHEMlight/Model1/2truck/5/90/Lower/RT_II_D_EU1"/>

<route id="platoon_route" edges= "-1 -1" />
</routes>
